*SPEF "ieee 1481-1999"
*DESIGN "arbiterpuf"
*DATE "11:11:11 Fri 11 11, 1111"
*VENDOR "OpenRCX"
*PROGRAM "Parallel Extraction"
*VERSION "1.0"
*DESIGN_FLOW "NAME_SCOPE LOCAL" "PIN_CAP NONE"
*DIVIDER /
*DELIMITER :
*BUS_DELIMITER []
*T_UNIT 1 NS
*C_UNIT 1 PF
*R_UNIT 1 OHM
*L_UNIT 1 HENRY

*NAME_MAP
*1 ichallenge[0]
*2 ichallenge[10]
*3 ichallenge[11]
*4 ichallenge[12]
*5 ichallenge[13]
*6 ichallenge[14]
*7 ichallenge[15]
*8 ichallenge[1]
*9 ichallenge[2]
*10 ichallenge[3]
*11 ichallenge[4]
*12 ichallenge[5]
*13 ichallenge[6]
*14 ichallenge[7]
*15 ichallenge[8]
*16 ichallenge[9]
*17 ipulse
*18 oresponse
*21 net1
*22 net2
*23 ANTENNA__0__CLK
*24 ANTENNA__0__D
*25 ANTENNA_input1_A
*26 ANTENNA_output2_A
*27 FILLER_0_109
*28 FILLER_0_113
*29 FILLER_0_125
*30 FILLER_0_137
*31 FILLER_0_141
*32 FILLER_0_15
*33 FILLER_0_153
*34 FILLER_0_165
*35 FILLER_0_169
*36 FILLER_0_181
*37 FILLER_0_193
*38 FILLER_0_197
*39 FILLER_0_209
*40 FILLER_0_221
*41 FILLER_0_225
*42 FILLER_0_237
*43 FILLER_0_249
*44 FILLER_0_253
*45 FILLER_0_265
*46 FILLER_0_27
*47 FILLER_0_277
*48 FILLER_0_281
*49 FILLER_0_29
*50 FILLER_0_293
*51 FILLER_0_3
*52 FILLER_0_305
*53 FILLER_0_309
*54 FILLER_0_321
*55 FILLER_0_333
*56 FILLER_0_337
*57 FILLER_0_349
*58 FILLER_0_361
*59 FILLER_0_365
*60 FILLER_0_377
*61 FILLER_0_389
*62 FILLER_0_393
*63 FILLER_0_405
*64 FILLER_0_41
*65 FILLER_0_417
*66 FILLER_0_421
*67 FILLER_0_433
*68 FILLER_0_445
*69 FILLER_0_449
*70 FILLER_0_461
*71 FILLER_0_473
*72 FILLER_0_477
*73 FILLER_0_489
*74 FILLER_0_501
*75 FILLER_0_505
*76 FILLER_0_517
*77 FILLER_0_529
*78 FILLER_0_53
*79 FILLER_0_533
*80 FILLER_0_545
*81 FILLER_0_557
*82 FILLER_0_561
*83 FILLER_0_57
*84 FILLER_0_573
*85 FILLER_0_585
*86 FILLER_0_589
*87 FILLER_0_601
*88 FILLER_0_613
*89 FILLER_0_617
*90 FILLER_0_629
*91 FILLER_0_641
*92 FILLER_0_645
*93 FILLER_0_657
*94 FILLER_0_669
*95 FILLER_0_673
*96 FILLER_0_685
*97 FILLER_0_69
*98 FILLER_0_697
*99 FILLER_0_701
*100 FILLER_0_713
*101 FILLER_0_725
*102 FILLER_0_729
*103 FILLER_0_741
*104 FILLER_0_753
*105 FILLER_0_757
*106 FILLER_0_769
*107 FILLER_0_781
*108 FILLER_0_785
*109 FILLER_0_797
*110 FILLER_0_809
*111 FILLER_0_81
*112 FILLER_0_813
*113 FILLER_0_825
*114 FILLER_0_837
*115 FILLER_0_841
*116 FILLER_0_85
*117 FILLER_0_97
*118 FILLER_100_109
*119 FILLER_100_121
*120 FILLER_100_133
*121 FILLER_100_139
*122 FILLER_100_141
*123 FILLER_100_15
*124 FILLER_100_153
*125 FILLER_100_165
*126 FILLER_100_177
*127 FILLER_100_189
*128 FILLER_100_195
*129 FILLER_100_197
*130 FILLER_100_209
*131 FILLER_100_221
*132 FILLER_100_233
*133 FILLER_100_245
*134 FILLER_100_251
*135 FILLER_100_253
*136 FILLER_100_265
*137 FILLER_100_27
*138 FILLER_100_277
*139 FILLER_100_289
*140 FILLER_100_29
*141 FILLER_100_3
*142 FILLER_100_301
*143 FILLER_100_307
*144 FILLER_100_309
*145 FILLER_100_321
*146 FILLER_100_333
*147 FILLER_100_345
*148 FILLER_100_357
*149 FILLER_100_363
*150 FILLER_100_365
*151 FILLER_100_377
*152 FILLER_100_389
*153 FILLER_100_401
*154 FILLER_100_41
*155 FILLER_100_413
*156 FILLER_100_419
*157 FILLER_100_421
*158 FILLER_100_433
*159 FILLER_100_445
*160 FILLER_100_457
*161 FILLER_100_469
*162 FILLER_100_475
*163 FILLER_100_477
*164 FILLER_100_489
*165 FILLER_100_501
*166 FILLER_100_513
*167 FILLER_100_525
*168 FILLER_100_53
*169 FILLER_100_531
*170 FILLER_100_533
*171 FILLER_100_545
*172 FILLER_100_557
*173 FILLER_100_569
*174 FILLER_100_581
*175 FILLER_100_587
*176 FILLER_100_589
*177 FILLER_100_601
*178 FILLER_100_613
*179 FILLER_100_625
*180 FILLER_100_637
*181 FILLER_100_643
*182 FILLER_100_645
*183 FILLER_100_65
*184 FILLER_100_657
*185 FILLER_100_669
*186 FILLER_100_681
*187 FILLER_100_693
*188 FILLER_100_699
*189 FILLER_100_701
*190 FILLER_100_713
*191 FILLER_100_725
*192 FILLER_100_737
*193 FILLER_100_749
*194 FILLER_100_755
*195 FILLER_100_757
*196 FILLER_100_769
*197 FILLER_100_77
*198 FILLER_100_781
*199 FILLER_100_793
*200 FILLER_100_805
*201 FILLER_100_811
*202 FILLER_100_813
*203 FILLER_100_825
*204 FILLER_100_83
*205 FILLER_100_837
*206 FILLER_100_841
*207 FILLER_100_85
*208 FILLER_100_97
*209 FILLER_101_105
*210 FILLER_101_111
*211 FILLER_101_113
*212 FILLER_101_125
*213 FILLER_101_137
*214 FILLER_101_149
*215 FILLER_101_15
*216 FILLER_101_161
*217 FILLER_101_167
*218 FILLER_101_169
*219 FILLER_101_181
*220 FILLER_101_193
*221 FILLER_101_205
*222 FILLER_101_217
*223 FILLER_101_223
*224 FILLER_101_225
*225 FILLER_101_237
*226 FILLER_101_249
*227 FILLER_101_261
*228 FILLER_101_27
*229 FILLER_101_273
*230 FILLER_101_279
*231 FILLER_101_281
*232 FILLER_101_293
*233 FILLER_101_3
*234 FILLER_101_305
*235 FILLER_101_317
*236 FILLER_101_329
*237 FILLER_101_335
*238 FILLER_101_337
*239 FILLER_101_349
*240 FILLER_101_361
*241 FILLER_101_373
*242 FILLER_101_385
*243 FILLER_101_39
*244 FILLER_101_391
*245 FILLER_101_393
*246 FILLER_101_405
*247 FILLER_101_417
*248 FILLER_101_429
*249 FILLER_101_441
*250 FILLER_101_447
*251 FILLER_101_449
*252 FILLER_101_461
*253 FILLER_101_473
*254 FILLER_101_485
*255 FILLER_101_497
*256 FILLER_101_503
*257 FILLER_101_505
*258 FILLER_101_51
*259 FILLER_101_517
*260 FILLER_101_529
*261 FILLER_101_541
*262 FILLER_101_55
*263 FILLER_101_553
*264 FILLER_101_559
*265 FILLER_101_561
*266 FILLER_101_57
*267 FILLER_101_573
*268 FILLER_101_585
*269 FILLER_101_597
*270 FILLER_101_609
*271 FILLER_101_615
*272 FILLER_101_617
*273 FILLER_101_629
*274 FILLER_101_641
*275 FILLER_101_653
*276 FILLER_101_665
*277 FILLER_101_671
*278 FILLER_101_673
*279 FILLER_101_685
*280 FILLER_101_69
*281 FILLER_101_697
*282 FILLER_101_709
*283 FILLER_101_721
*284 FILLER_101_727
*285 FILLER_101_729
*286 FILLER_101_741
*287 FILLER_101_753
*288 FILLER_101_765
*289 FILLER_101_777
*290 FILLER_101_783
*291 FILLER_101_785
*292 FILLER_101_797
*293 FILLER_101_809
*294 FILLER_101_81
*295 FILLER_101_821
*296 FILLER_101_833
*297 FILLER_101_839
*298 FILLER_101_841
*299 FILLER_101_93
*300 FILLER_102_109
*301 FILLER_102_121
*302 FILLER_102_133
*303 FILLER_102_139
*304 FILLER_102_141
*305 FILLER_102_15
*306 FILLER_102_153
*307 FILLER_102_165
*308 FILLER_102_177
*309 FILLER_102_189
*310 FILLER_102_195
*311 FILLER_102_197
*312 FILLER_102_209
*313 FILLER_102_221
*314 FILLER_102_233
*315 FILLER_102_245
*316 FILLER_102_251
*317 FILLER_102_253
*318 FILLER_102_265
*319 FILLER_102_27
*320 FILLER_102_277
*321 FILLER_102_289
*322 FILLER_102_29
*323 FILLER_102_3
*324 FILLER_102_301
*325 FILLER_102_307
*326 FILLER_102_309
*327 FILLER_102_321
*328 FILLER_102_333
*329 FILLER_102_345
*330 FILLER_102_357
*331 FILLER_102_363
*332 FILLER_102_365
*333 FILLER_102_377
*334 FILLER_102_389
*335 FILLER_102_401
*336 FILLER_102_41
*337 FILLER_102_413
*338 FILLER_102_419
*339 FILLER_102_421
*340 FILLER_102_433
*341 FILLER_102_445
*342 FILLER_102_457
*343 FILLER_102_469
*344 FILLER_102_475
*345 FILLER_102_477
*346 FILLER_102_489
*347 FILLER_102_501
*348 FILLER_102_513
*349 FILLER_102_525
*350 FILLER_102_53
*351 FILLER_102_531
*352 FILLER_102_533
*353 FILLER_102_545
*354 FILLER_102_557
*355 FILLER_102_569
*356 FILLER_102_581
*357 FILLER_102_587
*358 FILLER_102_589
*359 FILLER_102_601
*360 FILLER_102_613
*361 FILLER_102_625
*362 FILLER_102_637
*363 FILLER_102_643
*364 FILLER_102_645
*365 FILLER_102_65
*366 FILLER_102_657
*367 FILLER_102_669
*368 FILLER_102_681
*369 FILLER_102_693
*370 FILLER_102_699
*371 FILLER_102_701
*372 FILLER_102_713
*373 FILLER_102_725
*374 FILLER_102_737
*375 FILLER_102_749
*376 FILLER_102_755
*377 FILLER_102_757
*378 FILLER_102_769
*379 FILLER_102_77
*380 FILLER_102_781
*381 FILLER_102_793
*382 FILLER_102_805
*383 FILLER_102_811
*384 FILLER_102_813
*385 FILLER_102_825
*386 FILLER_102_83
*387 FILLER_102_837
*388 FILLER_102_841
*389 FILLER_102_85
*390 FILLER_102_97
*391 FILLER_103_105
*392 FILLER_103_111
*393 FILLER_103_113
*394 FILLER_103_125
*395 FILLER_103_137
*396 FILLER_103_149
*397 FILLER_103_15
*398 FILLER_103_161
*399 FILLER_103_167
*400 FILLER_103_169
*401 FILLER_103_181
*402 FILLER_103_193
*403 FILLER_103_205
*404 FILLER_103_217
*405 FILLER_103_223
*406 FILLER_103_225
*407 FILLER_103_237
*408 FILLER_103_249
*409 FILLER_103_261
*410 FILLER_103_27
*411 FILLER_103_273
*412 FILLER_103_279
*413 FILLER_103_281
*414 FILLER_103_293
*415 FILLER_103_3
*416 FILLER_103_305
*417 FILLER_103_317
*418 FILLER_103_329
*419 FILLER_103_335
*420 FILLER_103_337
*421 FILLER_103_349
*422 FILLER_103_361
*423 FILLER_103_373
*424 FILLER_103_385
*425 FILLER_103_39
*426 FILLER_103_391
*427 FILLER_103_393
*428 FILLER_103_405
*429 FILLER_103_417
*430 FILLER_103_429
*431 FILLER_103_441
*432 FILLER_103_447
*433 FILLER_103_449
*434 FILLER_103_461
*435 FILLER_103_473
*436 FILLER_103_485
*437 FILLER_103_497
*438 FILLER_103_503
*439 FILLER_103_505
*440 FILLER_103_51
*441 FILLER_103_517
*442 FILLER_103_529
*443 FILLER_103_541
*444 FILLER_103_55
*445 FILLER_103_553
*446 FILLER_103_559
*447 FILLER_103_561
*448 FILLER_103_57
*449 FILLER_103_573
*450 FILLER_103_585
*451 FILLER_103_597
*452 FILLER_103_609
*453 FILLER_103_615
*454 FILLER_103_617
*455 FILLER_103_629
*456 FILLER_103_641
*457 FILLER_103_653
*458 FILLER_103_665
*459 FILLER_103_671
*460 FILLER_103_673
*461 FILLER_103_685
*462 FILLER_103_69
*463 FILLER_103_697
*464 FILLER_103_709
*465 FILLER_103_721
*466 FILLER_103_727
*467 FILLER_103_729
*468 FILLER_103_741
*469 FILLER_103_753
*470 FILLER_103_765
*471 FILLER_103_777
*472 FILLER_103_783
*473 FILLER_103_785
*474 FILLER_103_797
*475 FILLER_103_809
*476 FILLER_103_81
*477 FILLER_103_821
*478 FILLER_103_833
*479 FILLER_103_839
*480 FILLER_103_841
*481 FILLER_103_93
*482 FILLER_104_109
*483 FILLER_104_121
*484 FILLER_104_133
*485 FILLER_104_139
*486 FILLER_104_141
*487 FILLER_104_15
*488 FILLER_104_153
*489 FILLER_104_165
*490 FILLER_104_177
*491 FILLER_104_189
*492 FILLER_104_195
*493 FILLER_104_197
*494 FILLER_104_209
*495 FILLER_104_221
*496 FILLER_104_233
*497 FILLER_104_245
*498 FILLER_104_251
*499 FILLER_104_253
*500 FILLER_104_265
*501 FILLER_104_27
*502 FILLER_104_277
*503 FILLER_104_289
*504 FILLER_104_29
*505 FILLER_104_3
*506 FILLER_104_301
*507 FILLER_104_307
*508 FILLER_104_309
*509 FILLER_104_321
*510 FILLER_104_333
*511 FILLER_104_345
*512 FILLER_104_357
*513 FILLER_104_363
*514 FILLER_104_365
*515 FILLER_104_377
*516 FILLER_104_389
*517 FILLER_104_401
*518 FILLER_104_41
*519 FILLER_104_413
*520 FILLER_104_419
*521 FILLER_104_421
*522 FILLER_104_433
*523 FILLER_104_445
*524 FILLER_104_457
*525 FILLER_104_469
*526 FILLER_104_475
*527 FILLER_104_477
*528 FILLER_104_489
*529 FILLER_104_501
*530 FILLER_104_513
*531 FILLER_104_525
*532 FILLER_104_53
*533 FILLER_104_531
*534 FILLER_104_533
*535 FILLER_104_545
*536 FILLER_104_557
*537 FILLER_104_569
*538 FILLER_104_581
*539 FILLER_104_587
*540 FILLER_104_589
*541 FILLER_104_601
*542 FILLER_104_613
*543 FILLER_104_625
*544 FILLER_104_637
*545 FILLER_104_643
*546 FILLER_104_645
*547 FILLER_104_65
*548 FILLER_104_657
*549 FILLER_104_669
*550 FILLER_104_681
*551 FILLER_104_693
*552 FILLER_104_699
*553 FILLER_104_701
*554 FILLER_104_713
*555 FILLER_104_725
*556 FILLER_104_737
*557 FILLER_104_749
*558 FILLER_104_755
*559 FILLER_104_757
*560 FILLER_104_769
*561 FILLER_104_77
*562 FILLER_104_781
*563 FILLER_104_793
*564 FILLER_104_805
*565 FILLER_104_811
*566 FILLER_104_813
*567 FILLER_104_825
*568 FILLER_104_83
*569 FILLER_104_837
*570 FILLER_104_841
*571 FILLER_104_85
*572 FILLER_104_97
*573 FILLER_105_105
*574 FILLER_105_111
*575 FILLER_105_113
*576 FILLER_105_125
*577 FILLER_105_137
*578 FILLER_105_149
*579 FILLER_105_15
*580 FILLER_105_161
*581 FILLER_105_167
*582 FILLER_105_169
*583 FILLER_105_181
*584 FILLER_105_193
*585 FILLER_105_205
*586 FILLER_105_217
*587 FILLER_105_223
*588 FILLER_105_225
*589 FILLER_105_237
*590 FILLER_105_249
*591 FILLER_105_261
*592 FILLER_105_27
*593 FILLER_105_273
*594 FILLER_105_279
*595 FILLER_105_281
*596 FILLER_105_293
*597 FILLER_105_3
*598 FILLER_105_305
*599 FILLER_105_317
*600 FILLER_105_329
*601 FILLER_105_335
*602 FILLER_105_337
*603 FILLER_105_349
*604 FILLER_105_361
*605 FILLER_105_373
*606 FILLER_105_385
*607 FILLER_105_39
*608 FILLER_105_391
*609 FILLER_105_393
*610 FILLER_105_405
*611 FILLER_105_417
*612 FILLER_105_429
*613 FILLER_105_441
*614 FILLER_105_447
*615 FILLER_105_449
*616 FILLER_105_461
*617 FILLER_105_473
*618 FILLER_105_485
*619 FILLER_105_497
*620 FILLER_105_503
*621 FILLER_105_505
*622 FILLER_105_51
*623 FILLER_105_517
*624 FILLER_105_529
*625 FILLER_105_541
*626 FILLER_105_55
*627 FILLER_105_553
*628 FILLER_105_559
*629 FILLER_105_561
*630 FILLER_105_57
*631 FILLER_105_573
*632 FILLER_105_585
*633 FILLER_105_597
*634 FILLER_105_609
*635 FILLER_105_615
*636 FILLER_105_617
*637 FILLER_105_629
*638 FILLER_105_641
*639 FILLER_105_653
*640 FILLER_105_665
*641 FILLER_105_671
*642 FILLER_105_673
*643 FILLER_105_685
*644 FILLER_105_69
*645 FILLER_105_697
*646 FILLER_105_709
*647 FILLER_105_721
*648 FILLER_105_727
*649 FILLER_105_729
*650 FILLER_105_741
*651 FILLER_105_753
*652 FILLER_105_765
*653 FILLER_105_777
*654 FILLER_105_783
*655 FILLER_105_785
*656 FILLER_105_797
*657 FILLER_105_809
*658 FILLER_105_81
*659 FILLER_105_821
*660 FILLER_105_833
*661 FILLER_105_839
*662 FILLER_105_841
*663 FILLER_105_93
*664 FILLER_106_109
*665 FILLER_106_121
*666 FILLER_106_133
*667 FILLER_106_139
*668 FILLER_106_141
*669 FILLER_106_15
*670 FILLER_106_153
*671 FILLER_106_165
*672 FILLER_106_177
*673 FILLER_106_189
*674 FILLER_106_195
*675 FILLER_106_197
*676 FILLER_106_209
*677 FILLER_106_221
*678 FILLER_106_233
*679 FILLER_106_245
*680 FILLER_106_251
*681 FILLER_106_253
*682 FILLER_106_265
*683 FILLER_106_27
*684 FILLER_106_277
*685 FILLER_106_289
*686 FILLER_106_29
*687 FILLER_106_3
*688 FILLER_106_301
*689 FILLER_106_307
*690 FILLER_106_309
*691 FILLER_106_321
*692 FILLER_106_333
*693 FILLER_106_345
*694 FILLER_106_357
*695 FILLER_106_363
*696 FILLER_106_365
*697 FILLER_106_377
*698 FILLER_106_389
*699 FILLER_106_401
*700 FILLER_106_41
*701 FILLER_106_413
*702 FILLER_106_419
*703 FILLER_106_421
*704 FILLER_106_433
*705 FILLER_106_445
*706 FILLER_106_457
*707 FILLER_106_469
*708 FILLER_106_475
*709 FILLER_106_477
*710 FILLER_106_489
*711 FILLER_106_501
*712 FILLER_106_513
*713 FILLER_106_525
*714 FILLER_106_53
*715 FILLER_106_531
*716 FILLER_106_533
*717 FILLER_106_545
*718 FILLER_106_557
*719 FILLER_106_569
*720 FILLER_106_581
*721 FILLER_106_587
*722 FILLER_106_589
*723 FILLER_106_601
*724 FILLER_106_613
*725 FILLER_106_625
*726 FILLER_106_637
*727 FILLER_106_643
*728 FILLER_106_645
*729 FILLER_106_65
*730 FILLER_106_657
*731 FILLER_106_669
*732 FILLER_106_681
*733 FILLER_106_693
*734 FILLER_106_699
*735 FILLER_106_701
*736 FILLER_106_713
*737 FILLER_106_725
*738 FILLER_106_737
*739 FILLER_106_749
*740 FILLER_106_755
*741 FILLER_106_757
*742 FILLER_106_769
*743 FILLER_106_77
*744 FILLER_106_781
*745 FILLER_106_793
*746 FILLER_106_805
*747 FILLER_106_811
*748 FILLER_106_813
*749 FILLER_106_825
*750 FILLER_106_83
*751 FILLER_106_837
*752 FILLER_106_841
*753 FILLER_106_85
*754 FILLER_106_97
*755 FILLER_107_105
*756 FILLER_107_111
*757 FILLER_107_113
*758 FILLER_107_125
*759 FILLER_107_137
*760 FILLER_107_149
*761 FILLER_107_15
*762 FILLER_107_161
*763 FILLER_107_167
*764 FILLER_107_169
*765 FILLER_107_181
*766 FILLER_107_193
*767 FILLER_107_205
*768 FILLER_107_217
*769 FILLER_107_223
*770 FILLER_107_225
*771 FILLER_107_237
*772 FILLER_107_249
*773 FILLER_107_261
*774 FILLER_107_27
*775 FILLER_107_273
*776 FILLER_107_279
*777 FILLER_107_281
*778 FILLER_107_293
*779 FILLER_107_3
*780 FILLER_107_305
*781 FILLER_107_317
*782 FILLER_107_329
*783 FILLER_107_335
*784 FILLER_107_337
*785 FILLER_107_349
*786 FILLER_107_361
*787 FILLER_107_373
*788 FILLER_107_385
*789 FILLER_107_39
*790 FILLER_107_391
*791 FILLER_107_393
*792 FILLER_107_405
*793 FILLER_107_417
*794 FILLER_107_429
*795 FILLER_107_441
*796 FILLER_107_447
*797 FILLER_107_449
*798 FILLER_107_461
*799 FILLER_107_473
*800 FILLER_107_485
*801 FILLER_107_497
*802 FILLER_107_503
*803 FILLER_107_505
*804 FILLER_107_51
*805 FILLER_107_517
*806 FILLER_107_529
*807 FILLER_107_541
*808 FILLER_107_55
*809 FILLER_107_553
*810 FILLER_107_559
*811 FILLER_107_561
*812 FILLER_107_57
*813 FILLER_107_573
*814 FILLER_107_585
*815 FILLER_107_597
*816 FILLER_107_609
*817 FILLER_107_615
*818 FILLER_107_617
*819 FILLER_107_629
*820 FILLER_107_641
*821 FILLER_107_653
*822 FILLER_107_665
*823 FILLER_107_671
*824 FILLER_107_673
*825 FILLER_107_685
*826 FILLER_107_69
*827 FILLER_107_697
*828 FILLER_107_709
*829 FILLER_107_721
*830 FILLER_107_727
*831 FILLER_107_729
*832 FILLER_107_741
*833 FILLER_107_753
*834 FILLER_107_765
*835 FILLER_107_777
*836 FILLER_107_783
*837 FILLER_107_785
*838 FILLER_107_797
*839 FILLER_107_809
*840 FILLER_107_81
*841 FILLER_107_821
*842 FILLER_107_833
*843 FILLER_107_839
*844 FILLER_107_841
*845 FILLER_107_93
*846 FILLER_108_109
*847 FILLER_108_121
*848 FILLER_108_133
*849 FILLER_108_139
*850 FILLER_108_141
*851 FILLER_108_15
*852 FILLER_108_153
*853 FILLER_108_165
*854 FILLER_108_177
*855 FILLER_108_189
*856 FILLER_108_195
*857 FILLER_108_197
*858 FILLER_108_209
*859 FILLER_108_221
*860 FILLER_108_233
*861 FILLER_108_245
*862 FILLER_108_251
*863 FILLER_108_253
*864 FILLER_108_265
*865 FILLER_108_27
*866 FILLER_108_277
*867 FILLER_108_289
*868 FILLER_108_29
*869 FILLER_108_3
*870 FILLER_108_301
*871 FILLER_108_307
*872 FILLER_108_309
*873 FILLER_108_321
*874 FILLER_108_333
*875 FILLER_108_345
*876 FILLER_108_357
*877 FILLER_108_363
*878 FILLER_108_365
*879 FILLER_108_377
*880 FILLER_108_389
*881 FILLER_108_401
*882 FILLER_108_41
*883 FILLER_108_413
*884 FILLER_108_419
*885 FILLER_108_421
*886 FILLER_108_433
*887 FILLER_108_445
*888 FILLER_108_457
*889 FILLER_108_469
*890 FILLER_108_475
*891 FILLER_108_477
*892 FILLER_108_489
*893 FILLER_108_501
*894 FILLER_108_513
*895 FILLER_108_525
*896 FILLER_108_53
*897 FILLER_108_531
*898 FILLER_108_533
*899 FILLER_108_545
*900 FILLER_108_557
*901 FILLER_108_569
*902 FILLER_108_581
*903 FILLER_108_587
*904 FILLER_108_589
*905 FILLER_108_601
*906 FILLER_108_613
*907 FILLER_108_625
*908 FILLER_108_637
*909 FILLER_108_643
*910 FILLER_108_645
*911 FILLER_108_65
*912 FILLER_108_657
*913 FILLER_108_669
*914 FILLER_108_681
*915 FILLER_108_693
*916 FILLER_108_699
*917 FILLER_108_701
*918 FILLER_108_713
*919 FILLER_108_725
*920 FILLER_108_737
*921 FILLER_108_749
*922 FILLER_108_755
*923 FILLER_108_757
*924 FILLER_108_769
*925 FILLER_108_77
*926 FILLER_108_781
*927 FILLER_108_793
*928 FILLER_108_805
*929 FILLER_108_811
*930 FILLER_108_813
*931 FILLER_108_825
*932 FILLER_108_83
*933 FILLER_108_837
*934 FILLER_108_841
*935 FILLER_108_85
*936 FILLER_108_97
*937 FILLER_109_105
*938 FILLER_109_111
*939 FILLER_109_113
*940 FILLER_109_125
*941 FILLER_109_137
*942 FILLER_109_149
*943 FILLER_109_15
*944 FILLER_109_161
*945 FILLER_109_167
*946 FILLER_109_169
*947 FILLER_109_181
*948 FILLER_109_193
*949 FILLER_109_205
*950 FILLER_109_217
*951 FILLER_109_223
*952 FILLER_109_225
*953 FILLER_109_237
*954 FILLER_109_249
*955 FILLER_109_261
*956 FILLER_109_27
*957 FILLER_109_273
*958 FILLER_109_279
*959 FILLER_109_281
*960 FILLER_109_293
*961 FILLER_109_3
*962 FILLER_109_305
*963 FILLER_109_317
*964 FILLER_109_329
*965 FILLER_109_335
*966 FILLER_109_337
*967 FILLER_109_349
*968 FILLER_109_361
*969 FILLER_109_373
*970 FILLER_109_385
*971 FILLER_109_39
*972 FILLER_109_391
*973 FILLER_109_393
*974 FILLER_109_405
*975 FILLER_109_417
*976 FILLER_109_429
*977 FILLER_109_441
*978 FILLER_109_447
*979 FILLER_109_449
*980 FILLER_109_461
*981 FILLER_109_473
*982 FILLER_109_485
*983 FILLER_109_497
*984 FILLER_109_503
*985 FILLER_109_505
*986 FILLER_109_51
*987 FILLER_109_517
*988 FILLER_109_529
*989 FILLER_109_541
*990 FILLER_109_55
*991 FILLER_109_553
*992 FILLER_109_559
*993 FILLER_109_561
*994 FILLER_109_57
*995 FILLER_109_573
*996 FILLER_109_585
*997 FILLER_109_597
*998 FILLER_109_609
*999 FILLER_109_615
*1000 FILLER_109_617
*1001 FILLER_109_629
*1002 FILLER_109_641
*1003 FILLER_109_653
*1004 FILLER_109_665
*1005 FILLER_109_671
*1006 FILLER_109_673
*1007 FILLER_109_685
*1008 FILLER_109_69
*1009 FILLER_109_697
*1010 FILLER_109_709
*1011 FILLER_109_721
*1012 FILLER_109_727
*1013 FILLER_109_729
*1014 FILLER_109_741
*1015 FILLER_109_753
*1016 FILLER_109_765
*1017 FILLER_109_777
*1018 FILLER_109_783
*1019 FILLER_109_785
*1020 FILLER_109_797
*1021 FILLER_109_809
*1022 FILLER_109_81
*1023 FILLER_109_821
*1024 FILLER_109_833
*1025 FILLER_109_839
*1026 FILLER_109_841
*1027 FILLER_109_93
*1028 FILLER_10_109
*1029 FILLER_10_121
*1030 FILLER_10_133
*1031 FILLER_10_139
*1032 FILLER_10_141
*1033 FILLER_10_15
*1034 FILLER_10_153
*1035 FILLER_10_165
*1036 FILLER_10_177
*1037 FILLER_10_189
*1038 FILLER_10_195
*1039 FILLER_10_197
*1040 FILLER_10_209
*1041 FILLER_10_221
*1042 FILLER_10_233
*1043 FILLER_10_245
*1044 FILLER_10_251
*1045 FILLER_10_253
*1046 FILLER_10_265
*1047 FILLER_10_27
*1048 FILLER_10_277
*1049 FILLER_10_289
*1050 FILLER_10_29
*1051 FILLER_10_3
*1052 FILLER_10_301
*1053 FILLER_10_307
*1054 FILLER_10_309
*1055 FILLER_10_321
*1056 FILLER_10_333
*1057 FILLER_10_345
*1058 FILLER_10_357
*1059 FILLER_10_363
*1060 FILLER_10_365
*1061 FILLER_10_377
*1062 FILLER_10_389
*1063 FILLER_10_401
*1064 FILLER_10_41
*1065 FILLER_10_413
*1066 FILLER_10_419
*1067 FILLER_10_421
*1068 FILLER_10_433
*1069 FILLER_10_445
*1070 FILLER_10_457
*1071 FILLER_10_469
*1072 FILLER_10_475
*1073 FILLER_10_477
*1074 FILLER_10_489
*1075 FILLER_10_501
*1076 FILLER_10_513
*1077 FILLER_10_525
*1078 FILLER_10_53
*1079 FILLER_10_531
*1080 FILLER_10_533
*1081 FILLER_10_545
*1082 FILLER_10_557
*1083 FILLER_10_569
*1084 FILLER_10_581
*1085 FILLER_10_587
*1086 FILLER_10_589
*1087 FILLER_10_601
*1088 FILLER_10_613
*1089 FILLER_10_625
*1090 FILLER_10_637
*1091 FILLER_10_643
*1092 FILLER_10_645
*1093 FILLER_10_65
*1094 FILLER_10_657
*1095 FILLER_10_669
*1096 FILLER_10_681
*1097 FILLER_10_693
*1098 FILLER_10_699
*1099 FILLER_10_701
*1100 FILLER_10_713
*1101 FILLER_10_725
*1102 FILLER_10_737
*1103 FILLER_10_749
*1104 FILLER_10_755
*1105 FILLER_10_757
*1106 FILLER_10_769
*1107 FILLER_10_77
*1108 FILLER_10_781
*1109 FILLER_10_793
*1110 FILLER_10_805
*1111 FILLER_10_811
*1112 FILLER_10_813
*1113 FILLER_10_825
*1114 FILLER_10_83
*1115 FILLER_10_837
*1116 FILLER_10_841
*1117 FILLER_10_85
*1118 FILLER_10_97
*1119 FILLER_110_109
*1120 FILLER_110_121
*1121 FILLER_110_133
*1122 FILLER_110_139
*1123 FILLER_110_141
*1124 FILLER_110_15
*1125 FILLER_110_153
*1126 FILLER_110_165
*1127 FILLER_110_177
*1128 FILLER_110_189
*1129 FILLER_110_195
*1130 FILLER_110_197
*1131 FILLER_110_209
*1132 FILLER_110_221
*1133 FILLER_110_233
*1134 FILLER_110_245
*1135 FILLER_110_251
*1136 FILLER_110_253
*1137 FILLER_110_265
*1138 FILLER_110_27
*1139 FILLER_110_277
*1140 FILLER_110_289
*1141 FILLER_110_29
*1142 FILLER_110_3
*1143 FILLER_110_301
*1144 FILLER_110_307
*1145 FILLER_110_309
*1146 FILLER_110_321
*1147 FILLER_110_333
*1148 FILLER_110_345
*1149 FILLER_110_357
*1150 FILLER_110_363
*1151 FILLER_110_365
*1152 FILLER_110_377
*1153 FILLER_110_389
*1154 FILLER_110_401
*1155 FILLER_110_41
*1156 FILLER_110_413
*1157 FILLER_110_419
*1158 FILLER_110_421
*1159 FILLER_110_433
*1160 FILLER_110_445
*1161 FILLER_110_457
*1162 FILLER_110_469
*1163 FILLER_110_475
*1164 FILLER_110_477
*1165 FILLER_110_489
*1166 FILLER_110_501
*1167 FILLER_110_513
*1168 FILLER_110_525
*1169 FILLER_110_53
*1170 FILLER_110_531
*1171 FILLER_110_533
*1172 FILLER_110_545
*1173 FILLER_110_557
*1174 FILLER_110_569
*1175 FILLER_110_581
*1176 FILLER_110_587
*1177 FILLER_110_589
*1178 FILLER_110_601
*1179 FILLER_110_613
*1180 FILLER_110_625
*1181 FILLER_110_637
*1182 FILLER_110_643
*1183 FILLER_110_645
*1184 FILLER_110_65
*1185 FILLER_110_657
*1186 FILLER_110_669
*1187 FILLER_110_681
*1188 FILLER_110_693
*1189 FILLER_110_699
*1190 FILLER_110_701
*1191 FILLER_110_713
*1192 FILLER_110_725
*1193 FILLER_110_737
*1194 FILLER_110_749
*1195 FILLER_110_755
*1196 FILLER_110_757
*1197 FILLER_110_769
*1198 FILLER_110_77
*1199 FILLER_110_781
*1200 FILLER_110_793
*1201 FILLER_110_805
*1202 FILLER_110_811
*1203 FILLER_110_813
*1204 FILLER_110_825
*1205 FILLER_110_83
*1206 FILLER_110_837
*1207 FILLER_110_841
*1208 FILLER_110_85
*1209 FILLER_110_97
*1210 FILLER_111_105
*1211 FILLER_111_111
*1212 FILLER_111_113
*1213 FILLER_111_125
*1214 FILLER_111_137
*1215 FILLER_111_149
*1216 FILLER_111_15
*1217 FILLER_111_161
*1218 FILLER_111_167
*1219 FILLER_111_169
*1220 FILLER_111_181
*1221 FILLER_111_193
*1222 FILLER_111_205
*1223 FILLER_111_217
*1224 FILLER_111_223
*1225 FILLER_111_225
*1226 FILLER_111_237
*1227 FILLER_111_249
*1228 FILLER_111_261
*1229 FILLER_111_27
*1230 FILLER_111_273
*1231 FILLER_111_279
*1232 FILLER_111_281
*1233 FILLER_111_293
*1234 FILLER_111_3
*1235 FILLER_111_305
*1236 FILLER_111_317
*1237 FILLER_111_329
*1238 FILLER_111_335
*1239 FILLER_111_337
*1240 FILLER_111_349
*1241 FILLER_111_361
*1242 FILLER_111_373
*1243 FILLER_111_385
*1244 FILLER_111_39
*1245 FILLER_111_391
*1246 FILLER_111_393
*1247 FILLER_111_405
*1248 FILLER_111_417
*1249 FILLER_111_429
*1250 FILLER_111_441
*1251 FILLER_111_447
*1252 FILLER_111_449
*1253 FILLER_111_461
*1254 FILLER_111_473
*1255 FILLER_111_485
*1256 FILLER_111_497
*1257 FILLER_111_503
*1258 FILLER_111_505
*1259 FILLER_111_51
*1260 FILLER_111_517
*1261 FILLER_111_529
*1262 FILLER_111_541
*1263 FILLER_111_55
*1264 FILLER_111_553
*1265 FILLER_111_559
*1266 FILLER_111_561
*1267 FILLER_111_57
*1268 FILLER_111_573
*1269 FILLER_111_585
*1270 FILLER_111_597
*1271 FILLER_111_609
*1272 FILLER_111_615
*1273 FILLER_111_617
*1274 FILLER_111_629
*1275 FILLER_111_641
*1276 FILLER_111_653
*1277 FILLER_111_665
*1278 FILLER_111_671
*1279 FILLER_111_673
*1280 FILLER_111_685
*1281 FILLER_111_69
*1282 FILLER_111_697
*1283 FILLER_111_709
*1284 FILLER_111_721
*1285 FILLER_111_727
*1286 FILLER_111_729
*1287 FILLER_111_741
*1288 FILLER_111_753
*1289 FILLER_111_765
*1290 FILLER_111_777
*1291 FILLER_111_783
*1292 FILLER_111_785
*1293 FILLER_111_797
*1294 FILLER_111_809
*1295 FILLER_111_81
*1296 FILLER_111_821
*1297 FILLER_111_833
*1298 FILLER_111_839
*1299 FILLER_111_841
*1300 FILLER_111_93
*1301 FILLER_112_109
*1302 FILLER_112_121
*1303 FILLER_112_133
*1304 FILLER_112_139
*1305 FILLER_112_141
*1306 FILLER_112_15
*1307 FILLER_112_153
*1308 FILLER_112_165
*1309 FILLER_112_177
*1310 FILLER_112_189
*1311 FILLER_112_195
*1312 FILLER_112_197
*1313 FILLER_112_209
*1314 FILLER_112_221
*1315 FILLER_112_233
*1316 FILLER_112_245
*1317 FILLER_112_251
*1318 FILLER_112_253
*1319 FILLER_112_265
*1320 FILLER_112_27
*1321 FILLER_112_277
*1322 FILLER_112_289
*1323 FILLER_112_29
*1324 FILLER_112_3
*1325 FILLER_112_301
*1326 FILLER_112_307
*1327 FILLER_112_309
*1328 FILLER_112_321
*1329 FILLER_112_333
*1330 FILLER_112_345
*1331 FILLER_112_357
*1332 FILLER_112_363
*1333 FILLER_112_365
*1334 FILLER_112_377
*1335 FILLER_112_389
*1336 FILLER_112_401
*1337 FILLER_112_41
*1338 FILLER_112_413
*1339 FILLER_112_419
*1340 FILLER_112_421
*1341 FILLER_112_433
*1342 FILLER_112_445
*1343 FILLER_112_457
*1344 FILLER_112_469
*1345 FILLER_112_475
*1346 FILLER_112_477
*1347 FILLER_112_489
*1348 FILLER_112_501
*1349 FILLER_112_513
*1350 FILLER_112_525
*1351 FILLER_112_53
*1352 FILLER_112_531
*1353 FILLER_112_533
*1354 FILLER_112_545
*1355 FILLER_112_557
*1356 FILLER_112_569
*1357 FILLER_112_581
*1358 FILLER_112_587
*1359 FILLER_112_589
*1360 FILLER_112_601
*1361 FILLER_112_613
*1362 FILLER_112_625
*1363 FILLER_112_637
*1364 FILLER_112_643
*1365 FILLER_112_645
*1366 FILLER_112_65
*1367 FILLER_112_657
*1368 FILLER_112_669
*1369 FILLER_112_681
*1370 FILLER_112_693
*1371 FILLER_112_699
*1372 FILLER_112_701
*1373 FILLER_112_713
*1374 FILLER_112_725
*1375 FILLER_112_737
*1376 FILLER_112_749
*1377 FILLER_112_755
*1378 FILLER_112_757
*1379 FILLER_112_769
*1380 FILLER_112_77
*1381 FILLER_112_781
*1382 FILLER_112_793
*1383 FILLER_112_805
*1384 FILLER_112_811
*1385 FILLER_112_813
*1386 FILLER_112_825
*1387 FILLER_112_83
*1388 FILLER_112_837
*1389 FILLER_112_841
*1390 FILLER_112_85
*1391 FILLER_112_97
*1392 FILLER_113_105
*1393 FILLER_113_111
*1394 FILLER_113_113
*1395 FILLER_113_125
*1396 FILLER_113_137
*1397 FILLER_113_149
*1398 FILLER_113_15
*1399 FILLER_113_161
*1400 FILLER_113_167
*1401 FILLER_113_169
*1402 FILLER_113_181
*1403 FILLER_113_193
*1404 FILLER_113_205
*1405 FILLER_113_217
*1406 FILLER_113_223
*1407 FILLER_113_225
*1408 FILLER_113_237
*1409 FILLER_113_249
*1410 FILLER_113_261
*1411 FILLER_113_27
*1412 FILLER_113_273
*1413 FILLER_113_279
*1414 FILLER_113_281
*1415 FILLER_113_293
*1416 FILLER_113_3
*1417 FILLER_113_305
*1418 FILLER_113_317
*1419 FILLER_113_329
*1420 FILLER_113_335
*1421 FILLER_113_337
*1422 FILLER_113_349
*1423 FILLER_113_361
*1424 FILLER_113_373
*1425 FILLER_113_385
*1426 FILLER_113_39
*1427 FILLER_113_391
*1428 FILLER_113_393
*1429 FILLER_113_405
*1430 FILLER_113_417
*1431 FILLER_113_429
*1432 FILLER_113_441
*1433 FILLER_113_447
*1434 FILLER_113_449
*1435 FILLER_113_461
*1436 FILLER_113_473
*1437 FILLER_113_485
*1438 FILLER_113_497
*1439 FILLER_113_503
*1440 FILLER_113_505
*1441 FILLER_113_51
*1442 FILLER_113_517
*1443 FILLER_113_529
*1444 FILLER_113_541
*1445 FILLER_113_55
*1446 FILLER_113_553
*1447 FILLER_113_559
*1448 FILLER_113_561
*1449 FILLER_113_57
*1450 FILLER_113_573
*1451 FILLER_113_585
*1452 FILLER_113_597
*1453 FILLER_113_609
*1454 FILLER_113_615
*1455 FILLER_113_617
*1456 FILLER_113_629
*1457 FILLER_113_641
*1458 FILLER_113_653
*1459 FILLER_113_665
*1460 FILLER_113_671
*1461 FILLER_113_673
*1462 FILLER_113_685
*1463 FILLER_113_69
*1464 FILLER_113_697
*1465 FILLER_113_709
*1466 FILLER_113_721
*1467 FILLER_113_727
*1468 FILLER_113_729
*1469 FILLER_113_741
*1470 FILLER_113_753
*1471 FILLER_113_765
*1472 FILLER_113_777
*1473 FILLER_113_783
*1474 FILLER_113_785
*1475 FILLER_113_797
*1476 FILLER_113_809
*1477 FILLER_113_81
*1478 FILLER_113_821
*1479 FILLER_113_833
*1480 FILLER_113_839
*1481 FILLER_113_841
*1482 FILLER_113_93
*1483 FILLER_114_109
*1484 FILLER_114_121
*1485 FILLER_114_133
*1486 FILLER_114_139
*1487 FILLER_114_141
*1488 FILLER_114_15
*1489 FILLER_114_153
*1490 FILLER_114_165
*1491 FILLER_114_177
*1492 FILLER_114_189