*SPEF "ieee 1481-1999"
*DESIGN "mac"
*DATE "11:11:11 Fri 11 11, 1111"
*VENDOR "OpenRCX"
*PROGRAM "Parallel Extraction"
*VERSION "1.0"
*DESIGN_FLOW "NAME_SCOPE LOCAL" "PIN_CAP NONE"
*DIVIDER /
*DELIMITER :
*BUS_DELIMITER []
*T_UNIT 1 NS
*C_UNIT 1 PF
*R_UNIT 1 OHM
*L_UNIT 1 HENRY

*NAME_MAP
*1 clk
*2 clken
*3 in[0]
*4 in[1]
*5 in[2]
*6 in[3]
*7 in[4]
*8 in[5]
*9 in[6]
*10 in[7]
*11 ld
*12 ld1
*13 ld2
*14 ld3
*15 ld4
*16 net25
*17 out[10]
*18 net30
*19 net29
*20 net28
*21 net27
*22 net26
*23 out[1]
*24 out[2]
*25 out[3]
*26 out[4]
*27 out[5]
*28 out[6]
*29 out[7]
*30 out[8]
*31 net31
*32 rst
*35 A1\.x\[0\]
*36 A1\.x\[1\]
*37 A1\.x\[2\]
*38 A1\.x\[3\]
*39 A1\.x\[4\]
*40 A1\.x\[5\]
*41 A1\.x\[6\]
*42 A1\.x\[7\]
*43 I1\.out\[0\]
*44 I1\.out\[1\]
*45 I1\.out\[2\]
*46 I1\.out\[3\]
*47 I1\.out\[4\]
*48 I1\.out\[5\]
*49 I1\.out\[6\]
*50 I1\.out\[7\]
*51 I2\.out\[0\]
*52 I2\.out\[1\]
*53 I2\.out\[2\]
*54 I2\.out\[3\]
*55 I2\.out\[4\]
*56 I2\.out\[5\]
*57 I2\.out\[6\]
*58 I2\.out\[7\]
*59 I3\.out\[0\]
*60 I3\.out\[1\]
*61 I3\.out\[2\]
*62 I3\.out\[3\]
*63 I3\.out\[4\]
*64 I3\.out\[5\]
*65 I3\.out\[6\]
*66 I3\.out\[7\]
*67 I4\.out\[0\]
*68 I4\.out\[1\]
*69 I4\.out\[2\]
*70 I4\.out\[3\]
*71 I4\.out\[4\]
*72 I4\.out\[5\]
*73 I4\.out\[6\]
*74 I4\.out\[7\]
*75 P1\.in\[0\]
*76 P1\.in\[10\]
*77 P1\.in\[11\]
*78 P1\.in\[12\]
*79 P1\.in\[13\]
*80 P1\.in\[14\]
*81 P1\.in\[15\]
*82 P1\.in\[1\]
*83 P1\.in\[2\]
*84 P1\.in\[3\]
*85 P1\.in\[4\]
*86 P1\.in\[5\]
*87 P1\.in\[6\]
*88 P1\.in\[7\]
*89 P1\.in\[8\]
*90 P1\.in\[9\]
*91 P1\.qq\[10\]
*92 P1\.qq\[11\]
*93 P1\.qq\[12\]
*94 P1\.qq\[13\]
*95 P1\.qq\[14\]
*96 P1\.qq\[15\]
*97 P1\.qq\[8\]
*98 P1\.qq\[9\]
*99 _0000_
*100 _0001_
*101 _0002_
*102 _0003_
*103 _0004_
*104 _0005_
*105 _0006_
*106 _0007_
*107 _0008_
*108 _0009_
*109 _0010_
*110 _0011_
*111 _0012_
*112 _0013_
*113 _0014_
*114 _0015_
*115 _0016_
*116 _0017_
*117 _0018_
*118 _0019_
*119 _0020_
*120 _0021_
*121 _0022_
*122 _0023_
*123 _0024_
*124 _0025_
*125 _0026_
*126 _0027_
*127 _0028_
*128 _0029_
*129 _0030_
*130 _0031_
*131 _0032_
*132 _0033_
*133 _0034_
*134 _0035_
*135 _0036_
*136 _0037_
*137 _0038_
*138 _0039_
*139 _0040_
*140 _0041_
*141 _0042_
*142 _0043_
*143 _0044_
*144 _0045_
*145 _0046_
*146 _0047_
*147 _0048_
*148 _0049_
*149 _0050_
*150 _0051_
*151 _0052_
*152 _0053_
*153 _0054_
*154 _0055_
*155 _0056_
*156 _0057_
*157 _0058_
*158 _0059_
*159 _0060_
*160 _0061_
*161 _0062_
*162 _0063_
*163 _0064_
*164 _0065_
*165 _0066_
*166 _0067_
*167 _0068_
*168 _0069_
*169 _0070_
*170 _0071_
*171 _0072_
*172 _0073_
*173 _0074_
*174 _0075_
*175 _0076_
*176 _0077_
*177 _0078_
*178 _0079_
*179 _0080_
*180 _0081_
*181 _0082_
*182 _0083_
*183 _0084_
*184 _0085_
*185 _0086_
*186 _0087_
*187 _0088_
*188 _0089_
*189 _0090_
*190 _0091_
*191 _0092_
*192 _0093_
*193 _0094_
*194 _0095_
*195 _0096_
*196 _0097_
*197 _0098_
*198 _0099_
*199 _0100_
*200 _0101_
*201 _0102_
*202 _0103_
*203 _0104_
*204 _0105_
*205 _0106_
*206 _0107_
*207 _0108_
*208 _0109_
*209 _0110_
*210 _0111_
*211 _0112_
*212 _0113_
*213 _0114_
*214 _0115_
*215 _0116_
*216 _0117_
*217 _0118_
*218 _0119_
*219 _0120_
*220 _0121_
*221 _0122_
*222 _0123_
*223 _0124_
*224 _0125_
*225 _0126_
*226 _0127_
*227 _0128_
*228 _0129_
*229 _0130_
*230 _0131_
*231 _0132_
*232 _0133_
*233 _0134_
*234 _0135_
*235 _0136_
*236 _0137_
*237 _0138_
*238 _0139_
*239 _0140_
*240 _0141_
*241 _0142_
*242 _0143_
*243 _0144_
*244 _0145_
*245 _0146_
*246 _0147_
*247 _0148_
*248 _0149_
*249 _0150_
*250 _0151_
*251 _0152_
*252 _0153_
*253 _0154_
*254 _0155_
*255 _0156_
*256 _0157_
*257 _0158_
*258 _0159_
*259 _0160_
*260 _0161_
*261 _0162_
*262 _0163_
*263 _0164_
*264 _0165_
*265 _0166_
*266 _0167_
*267 _0168_
*268 _0169_
*269 _0170_
*270 _0171_
*271 _0172_
*272 _0173_
*273 _0174_
*274 _0175_
*275 _0176_
*276 _0177_
*277 _0178_
*278 _0179_
*279 _0180_
*280 _0181_
*281 _0182_
*282 _0183_
*283 _0184_
*284 _0185_
*285 _0186_
*286 _0187_
*287 _0188_
*288 _0189_
*289 _0190_
*290 _0191_
*291 _0192_
*292 _0193_
*293 _0194_
*294 _0195_
*295 _0196_
*296 _0197_
*297 _0198_
*298 _0199_
*299 _0200_
*300 _0201_
*301 _0202_
*302 _0203_
*303 _0204_
*304 _0205_
*305 _0206_
*306 _0207_
*307 _0208_
*308 _0209_
*309 _0210_
*310 _0211_
*311 _0212_
*312 _0213_
*313 _0214_
*314 _0215_
*315 _0216_
*316 _0217_
*317 _0218_
*318 _0219_
*319 _0220_
*320 _0221_
*321 _0222_
*322 _0223_
*323 _0224_
*324 _0225_
*325 _0226_
*326 _0227_
*327 _0228_
*328 _0229_
*329 _0230_
*330 _0231_
*331 _0232_
*332 _0233_
*333 _0234_
*334 _0235_
*335 _0236_
*336 _0237_
*337 _0238_
*338 _0239_
*339 _0240_
*340 _0241_
*341 _0242_
*342 _0243_
*343 _0244_
*344 _0245_
*345 _0246_
*346 _0247_
*347 _0248_
*348 _0249_
*349 _0250_
*350 _0251_
*351 _0252_
*352 _0253_
*353 _0254_
*354 _0255_
*355 _0256_
*356 _0257_
*357 _0258_
*358 _0259_
*359 _0260_
*360 _0261_
*361 _0262_
*362 _0263_
*363 _0264_
*364 _0265_
*365 _0266_
*366 _0267_
*367 _0268_
*368 _0269_
*369 _0270_
*370 _0271_
*371 _0272_
*372 _0273_
*373 _0274_
*374 _0275_
*375 _0276_
*376 _0277_
*377 _0278_
*378 _0279_
*379 _0280_
*380 _0281_
*381 _0282_
*382 _0283_
*383 _0284_
*384 _0285_
*385 _0286_
*386 _0287_
*387 _0288_
*388 _0289_
*389 _0290_
*390 _0291_
*391 _0292_
*392 _0293_
*393 _0294_
*394 _0295_
*395 _0296_
*396 _0297_
*397 _0298_
*398 _0299_
*399 _0300_
*400 _0301_
*401 _0302_
*402 _0303_
*403 _0304_
*404 _0305_
*405 _0306_
*406 _0307_
*407 _0308_
*408 _0309_
*409 _0310_
*410 _0311_
*411 _0312_
*412 _0313_
*413 _0314_
*414 _0315_
*415 _0316_
*416 _0317_
*417 _0318_
*418 _0319_
*419 _0320_
*420 _0321_
*421 _0322_
*422 _0323_
*423 _0324_
*424 _0325_
*425 _0326_
*426 _0327_
*427 _0328_
*428 _0329_
*429 _0330_
*430 _0331_
*431 _0332_
*432 _0333_
*433 _0334_
*434 _0335_
*435 _0336_
*436 _0337_
*437 _0338_
*438 _0339_
*439 _0340_
*440 _0341_
*441 _0342_
*442 _0343_
*443 _0344_
*444 _0345_
*445 _0346_
*446 _0347_
*447 _0348_
*448 _0349_
*449 _0350_
*450 _0351_
*451 _0352_
*452 _0353_
*453 _0354_
*454 _0355_
*455 _0356_
*456 _0357_
*457 _0358_
*458 _0359_
*459 _0360_
*460 _0361_
*461 _0362_
*462 _0363_
*463 _0364_
*464 _0365_
*465 _0366_
*466 _0367_
*467 _0368_
*468 _0369_
*469 _0370_
*470 _0371_
*471 _0372_
*472 _0373_
*473 _0374_
*474 _0375_
*475 _0376_
*476 _0377_
*477 _0378_
*478 _0379_
*479 _0380_
*480 _0381_
*481 _0382_
*482 _0383_
*483 _0384_
*484 _0385_
*485 _0386_
*486 _0387_
*487 _0388_
*488 _0389_
*489 _0390_
*490 _0391_
*491 _0392_
*492 _0393_
*493 _0394_
*494 _0395_
*495 _0396_
*496 _0397_
*497 _0398_
*498 _0399_
*499 _0400_
*500 _0401_
*501 _0402_
*502 _0403_
*503 _0404_
*504 _0405_
*505 _0406_
*506 _0407_
*507 _0408_
*508 _0409_
*509 _0410_
*510 _0411_
*511 _0412_
*512 _0413_
*513 _0414_
*514 _0415_
*515 _0416_
*516 _0417_
*517 _0418_
*518 _0419_
*519 _0420_
*520 _0421_
*521 _0422_
*522 _0423_
*523 _0424_
*524 _0425_
*525 _0426_
*526 _0427_
*527 _0428_
*528 _0429_
*529 _0430_
*530 _0431_
*531 _0432_
*532 _0433_
*533 _0434_
*534 _0435_
*535 _0436_
*536 _0437_
*537 _0438_
*538 _0439_
*539 _0440_
*540 _0441_
*541 _0442_
*542 _0443_
*543 _0444_
*544 _0445_
*545 _0446_
*546 _0447_
*547 _0448_
*548 _0449_
*549 _0450_
*550 _0451_
*551 _0452_
*552 _0453_
*553 _0454_
*554 _0455_
*555 _0456_
*556 _0457_
*557 _0458_
*558 _0459_
*559 _0460_
*560 _0461_
*561 _0462_
*562 _0463_
*563 _0464_
*564 _0465_
*565 _0466_
*566 _0467_
*567 _0468_
*568 _0469_
*569 _0470_
*570 _0471_
*571 _0472_
*572 _0473_
*573 _0474_
*574 _0475_
*575 _0476_
*576 _0477_
*577 _0478_
*578 _0479_
*579 _0480_
*580 _0481_
*581 _0482_
*582 _0483_
*583 _0484_
*584 _0485_
*585 _0486_
*586 _0487_
*587 _0488_
*588 _0489_
*589 _0490_
*590 _0491_
*591 _0492_
*592 _0493_
*593 _0494_
*594 _0495_
*595 _0496_
*596 _0497_
*597 _0498_
*598 _0499_
*599 _0500_
*600 _0501_
*601 _0502_
*602 _0503_
*603 _0504_
*604 _0505_
*605 _0506_
*606 _0507_
*607 _0508_
*608 _0509_
*609 _0510_
*610 _0511_
*611 _0512_
*612 _0513_
*613 _0514_
*614 _0515_
*615 _0516_
*616 _0517_
*617 _0518_
*618 _0519_
*619 _0520_
*620 _0521_
*621 _0522_
*622 _0523_
*623 _0524_
*624 _0525_
*625 _0526_
*626 _0527_
*627 _0528_
*628 _0529_
*629 _0530_
*630 _0531_
*631 _0532_
*632 _0533_
*633 _0534_
*634 _0535_
*635 _0536_
*636 _0537_
*637 _0538_
*638 _0539_
*639 _0540_
*640 _0541_
*641 _0542_
*642 _0543_
*643 _0544_
*644 _0545_
*645 _0546_
*646 _0547_
*647 _0548_
*648 _0549_
*649 _0550_
*650 _0551_
*651 _0552_
*652 _0553_
*653 _0554_
*654 _0555_
*655 _0556_
*656 _0557_
*657 _0558_
*658 _0559_
*659 _0560_
*660 _0561_
*661 _0562_
*662 _0563_
*663 _0564_
*664 _0565_
*665 _0566_
*666 _0567_
*667 _0568_
*668 _0569_
*669 _0570_
*670 _0571_
*671 _0572_
*672 _0573_
*673 _0574_
*674 _0575_
*675 _0576_
*676 _0577_
*677 _0578_
*678 _0579_
*679 _0580_
*680 _0581_
*681 _0582_
*682 _0583_
*683 _0584_
*684 _0585_
*685 _0586_
*686 _0587_
*687 _0588_
*688 _0589_
*689 _0590_
*690 _0591_
*691 _0592_
*692 _0593_
*693 _0594_
*694 _0595_
*695 _0596_
*696 _0597_
*697 _0598_
*698 _0599_
*699 _0600_
*700 _0601_
*701 _0602_
*702 _0603_
*703 _0604_
*704 _0605_
*705 _0606_
*706 _0607_
*707 _0608_
*708 _0609_
*709 _0610_
*710 _0611_
*711 _0612_
*712 _0613_
*713 _0614_
*714 _0615_
*715 _0616_
*716 _0617_
*717 _0618_
*718 _0619_
*719 _0620_
*720 _0621_
*721 _0622_
*722 _0623_
*723 _0624_
*724 _0625_
*725 _0626_
*726 _0627_
*727 _0628_
*728 _0629_
*729 _0630_
*730 _0631_
*731 _0632_
*732 _0633_
*733 _0634_
*734 _0635_
*735 _0636_
*736 _0637_
*737 _0638_
*738 _0639_
*739 _0640_
*740 _0641_
*741 _0642_
*742 _0643_
*743 _0644_
*744 _0645_
*745 _0646_
*746 _0647_
*747 _0648_
*748 _0649_
*749 _0650_
*750 _0651_
*751 _0652_
*752 _0653_
*753 _0654_
*754 _0655_
*755 _0656_
*756 _0657_
*757 _0658_
*758 _0659_
*759 _0660_
*760 _0661_
*761 _0662_
*762 _0663_
*763 _0664_
*764 _0665_
*765 _0666_
*766 _0667_
*767 _0668_
*768 _0669_
*769 _0670_
*770 _0671_
*771 _0672_
*772 _0673_
*773 _0674_
*774 _0675_
*775 _0676_
*776 _0677_
*777 _0678_
*778 _0679_
*779 _0680_
*780 _0681_
*781 _0682_
*782 _0683_
*783 _0684_
*784 _0685_
*785 _0686_
*786 _0687_
*787 _0688_
*788 _0689_
*789 _0690_
*790 _0691_
*791 _0692_
*792 _0693_
*793 _0694_
*794 _0695_
*795 _0696_
*796 _0697_
*797 _0698_
*798 _0699_
*799 _0700_
*800 _0701_
*801 _0702_
*802 _0703_
*803 _0704_
*804 _0705_
*805 _0706_
*806 _0707_
*807 _0708_
*808 _0709_
*809 _0710_
*810 _0711_
*811 _0712_
*812 _0713_
*813 _0714_
*814 _0715_
*815 _0716_
*816 _0717_
*817 _0718_
*818 _0719_
*819 _0720_
*820 _0721_
*821 _0722_
*822 _0723_
*823 _0724_
*824 _0725_
*825 _0726_
*826 _0727_
*827 _0728_
*828 _0729_
*829 _0730_
*830 _0731_
*831 _0732_
*832 _0733_
*833 _0734_
*834 _0735_
*835 _0736_
*836 _0737_
*837 _0738_
*838 _0739_
*839 _0740_
*840 _0741_
*841 _0742_
*842 _0743_
*843 _0744_
*844 _0745_
*845 _0746_
*846 _0747_
*847 _0748_
*848 _0749_
*849 _0750_
*850 _0751_
*851 _0752_
*852 _0753_
*853 _0754_
*854 _0755_
*855 _0756_
*856 _0757_
*857 _0758_
*858 _0759_
*859 _0760_
*860 _0761_
*861 _0762_
*862 _0763_
*863 _0764_
*864 _0765_
*865 _0766_
*866 _0767_
*867 _0768_
*868 _0769_
*869 _0770_
*870 _0771_
*871 _0772_
*872 _0773_
*873 _0774_
*874 _0775_
*875 _0776_
*876 _0777_
*877 _0778_
*878 _0779_
*879 _0780_
*880 _0781_
*881 _0782_
*882 _0783_
*883 _0784_
*884 _0785_
*885 _0786_
*886 _0787_
*887 _0788_
*888 _0789_
*889 _0790_
*890 _0791_
*891 _0792_
*892 _0793_
*893 _0794_
*894 _0795_
*895 _0796_
*896 _0797_
*897 _0798_
*898 _0799_
*899 _0800_
*900 _0801_
*901 _0802_
*902 _0803_
*903 _0804_
*904 _0805_
*905 _0806_
*906 _0807_
*907 _0808_
*908 _0809_
*909 _0810_
*910 _0811_
*911 _0812_
*912 _0813_
*913 _0814_
*914 _0815_
*915 _0816_
*916 _0817_
*917 _0818_
*918 _0819_
*919 _0820_
*920 _0821_
*921 _0822_
*922 _0823_
*923 _0824_
*924 _0825_
*925 _0826_
*926 _0827_
*927 _0828_
*928 _0829_
*929 _0830_
*930 _0831_
*931 _0832_
*932 _0833_
*933 _0834_
*934 _0835_
*935 _0836_
*936 _0837_
*937 _0838_
*938 _0839_
*939 _0840_
*940 _0841_
*941 _0842_
*942 _0843_
*943 _0844_
*944 _0845_
*945 _0846_
*946 _0847_
*947 _0848_
*948 _0849_
*949 _0850_
*950 _0851_
*951 _0852_
*952 _0853_
*953 _0854_
*954 _0855_
*955 _0856_
*956 _0857_
*957 _0858_
*958 _0859_
*959 _0860_
*960 _0861_
*961 _0862_
*962 _0863_
*963 _0864_
*964 _0865_
*965 _0866_
*966 _0867_
*967 _0868_
*968 _0869_
*969 _0870_
*970 _0871_
*971 _0872_
*972 _0873_
*973 _0874_
*974 _0875_
*975 _0876_
*976 _0877_
*977 _0878_
*978 _0879_
*979 _0880_
*980 _0881_
*981 _0882_
*982 _0883_
*983 _0884_
*984 _0885_
*985 _0886_
*986 _0887_
*987 _0888_
*988 _0889_
*989 _0890_
*990 _0891_
*991 _0892_
*992 _0893_
*993 _0894_
*994 _0895_
*995 _0896_
*996 _0897_
*997 _0898_
*998 _0899_
*999 _0900_
*1000 _0901_
*1001 _0902_
*1002 _0903_
*1003 _0904_
*1004 _0905_
*1005 _0906_
*1006 _0907_
*1007 _0908_
*1008 _0909_
*1009 _0910_
*1010 _0911_
*1011 _0912_
*1012 _0913_
*1013 _0914_
*1014 _0915_
*1015 _0916_
*1016 _0917_
*1017 _0918_
*1018 _0919_
*1019 _0920_
*1020 _0921_
*1021 _0922_
*1022 _0923_
*1023 _0924_
*1024 _0925_
*1025 _0926_
*1026 _0927_
*1027 _0928_
*1028 _0929_
*1029 _0930_
*1030 _0931_
*1031 _0932_
*1032 _0933_
*1033 _0934_
*1034 _0935_
*1035 _0936_
*1036 _0937_
*1037 _0938_
*1038 _0939_
*1039 _0940_
*1040 _0941_
*1041 _0942_
*1042 _0943_
*1043 _0944_
*1044 _0945_
*1045 _0946_
*1046 _0947_
*1047 _0948_
*1048 _0949_
*1049 _0950_
*1050 _0951_
*1051 _0952_
*1052 _0953_
*1053 _0954_
*1054 _0955_
*1055 _0956_
*1056 _0957_
*1057 _0958_
*1058 _0959_
*1059 _0960_
*1060 _0961_
*1061 _0962_
*1062 _0963_
*1063 _0964_
*1064 _0965_
*1065 _0966_
*1066 _0967_
*1067 _0968_
*1068 _0969_
*1069 _0970_
*1070 _0971_
*1071 _0972_
*1072 _0973_
*1073 _0974_
*1074 _0975_
*1075 _0976_
*1076 _0977_
*1077 _0978_
*1078 _0979_
*1079 _0980_
*1080 _0981_
*1081 _0982_
*1082 _0983_
*1083 _0984_
*1084 _0985_
*1085 _0986_
*1086 _0987_
*1087 _0988_
*1088 _0989_
*1089 _0990_
*1090 _0991_
*1091 _0992_
*1092 _0993_
*1093 _0994_
*1094 _0995_
*1095 _0996_
*1096 _0997_
*1097 _0998_
*1098 _0999_
*1099 _1000_
*1100 _1001_
*1101 _1002_
*1102 _1003_
*1103 _1004_
*1104 _1005_
*1105 _1006_
*1106 _1007_
*1107 _1008_
*1108 _1009_
*1109 _1010_
*1110 _1011_
*1111 _1012_
*1112 _1013_
*1113 _1014_
*1114 _1015_
*1115 _1016_
*1116 _1017_
*1117 _1018_
*1118 _1019_
*1119 _1020_
*1120 _1021_
*1121 _1022_
*1122 _1023_
*1123 _1024_
*1124 _1025_
*1125 _1026_
*1126 _1027_
*1127 _1028_
*1128 _1029_
*1129 _1030_
*1130 _1031_
*1131 _1032_
*1132 _1033_
*1133 _1034_
*1134 _1035_
*1135 _1036_
*1136 _1037_
*1137 _1038_
*1138 _1039_
*1139 _1040_
*1140 _1041_
*1141 _1042_
*1142 _1043_
*1143 _1044_
*1144 _1045_
*1145 _1046_
*1146 _1047_
*1147 _1048_
*1148 _1049_
*1149 _1050_
*1150 _1051_
*1151 _1052_
*1152 _1053_
*1153 _1054_
*1154 _1055_
*1155 _1056_
*1156 _1057_
*1157 _1058_
*1158 _1059_
*1159 _1060_
*1160 _1061_
*1161 _1062_
*1162 _1063_
*1163 _1064_
*1164 _1065_
*1165 _1066_
*1166 _1067_
*1167 _1068_
*1168 _1069_
*1169 _1070_
*1170 _1071_
*1171 _1072_
*1172 _1073_
*1173 _1074_
*1174 _1075_
*1175 _1076_
*1176 _1077_
*1177 _1078_
*1178 _1079_
*1179 _1080_
*1180 _1081_
*1181 _1082_
*1182 _1083_
*1183 _1084_
*1184 _1085_
*1185 _1086_
*1186 _1087_
*1187 _1088_
*1188 _1089_
*1189 _1090_
*1190 _1091_
*1191 _1092_
*1192 _1093_
*1193 _1094_
*1194 _1095_
*1195 _1096_
*1196 _1097_
*1197 _1098_
*1198 _1099_
*1199 _1100_
*1200 _1101_
*1201 _1102_
*1202 _1103_
*1203 _1104_
*1204 _1105_
*1205 _1106_
*1206 _1107_
*1207 _1108_
*1208 _1109_
*1209 _1110_
*1210 _1111_
*1211 _1112_
*1212 _1113_
*1213 _1114_
*1214 _1115_
*1215 _1116_
*1216 _1117_
*1217 _1118_
*1218 _1119_
*1219 _1120_
*1220 _1121_
*1221 _1122_
*1222 _1123_
*1223 _1124_
*1224 _1125_
*1225 _1126_
*1226 _1127_
*1227 _1128_
*1228 _1129_
*1229 _1130_
*1230 _1131_
*1231 _1132_
*1232 _1133_
*1233 _1134_
*1234 _1135_
*1235 _1136_
*1236 _1137_
*1237 _1138_
*1238 _1139_
*1239 _1140_
*1240 _1141_
*1241 _1142_
*1242 _1143_
*1243 _1144_
*1244 _1145_
*1245 _1146_
*1246 _1147_
*1247 _1148_
*1248 _1149_
*1249 _1150_
*1250 _1151_
*1251 _1152_
*1252 _1153_
*1253 _1154_
*1254 _1155_
*1255 _1156_
*1256 _1157_
*1257 _1158_
*1258 _1159_
*1259 _1160_
*1260 _1161_
*1261 _1162_
*1262 _1163_
*1263 _1164_
*1264 _1165_
*1265 _1166_
*1266 _1167_
*1267 _1168_
*1268 _1169_
*1269 _1170_
*1270 _1171_
*1271 _1172_
*1272 _1173_
*1273 _1174_
*1274 _1175_
*1275 _1176_
*1276 _1177_
*1277 _1178_
*1278 _1179_
*1279 _1180_
*1280 _1181_
*1281 _1182_
*1282 _1183_
*1283 _1184_
*1284 _1185_
*1285 _1186_
*1286 _1187_
*1287 _1188_
*1288 _1189_
*1289 _1190_
*1290 _1191_
*1291 _1192_
*1292 _1193_
*1293 _1194_
*1294 _1195_
*1295 _1196_
*1296 _1197_
*1297 _1198_
*1298 _1199_
*1299 _1200_
*1300 _1201_
*1301 _1202_
*1302 _1203_
*1303 _1204_
*1304 _1205_
*1305 _1206_
*1306 _1207_
*1307 _1208_
*1308 _1209_
*1309 _1210_
*1310 _1211_
*1311 _1212_
*1312 _1213_
*1313 _1214_
*1314 _1215_
*1315 _1216_
*1316 _1217_
*1317 _1218_
*1318 _1219_
*1319 _1220_
*1320 _1221_
*1321 _1222_
*1322 _1223_
*1323 _1224_
*1324 _1225_
*1325 _1226_
*1326 _1227_
*1327 _1228_
*1328 _1229_
*1329 _1230_
*1330 _1231_
*1331 _1232_
*1332 _1233_
*1333 _1234_
*1334 _1235_
*1335 _1236_
*1336 _1237_
*1337 _1238_
*1338 clknet_0_clk
*1339 clknet_4_0_0_clk
*1340 clknet_4_10_0_clk
*1341 clknet_4_11_0_clk
*1342 clknet_4_12_0_clk
*1343 clknet_4_13_0_clk
*1344 clknet_4_14_0_clk
*1345 clknet_4_15_0_clk
*1346 clknet_4_1_0_clk
*1347 clknet_4_2_0_clk
*1348 clknet_4_3_0_clk
*1349 clknet_4_4_0_clk
*1350 clknet_4_5_0_clk
*1351 clknet_4_6_0_clk
*1352 clknet_4_7_0_clk
*1353 clknet_4_8_0_clk
*1354 clknet_4_9_0_clk
*1355 m1\.a\[0\]
*1356 m1\.a\[1\]
*1357 m1\.a\[2\]
*1358 m1\.a\[3\]
*1359 m1\.a\[4\]
*1360 m1\.a\[5\]
*1361 m1\.a\[6\]
*1362 m1\.a\[7\]
*1363 m1\.b\[0\]
*1364 m1\.b\[1\]
*1365 m1\.b\[2\]
*1366 m1\.b\[3\]
*1367 m1\.b\[4\]
*1368 m1\.b\[5\]
*1369 m1\.b\[6\]
*1370 m1\.b\[7\]
*1371 m1\.multa_reg\[0\]
*1372 m1\.multa_reg\[10\]
*1373 m1\.multa_reg\[11\]
*1374 m1\.multa_reg\[12\]
*1375 m1\.multa_reg\[13\]
*1376 m1\.multa_reg\[14\]
*1377 m1\.multa_reg\[15\]
*1378 m1\.multa_reg\[1\]
*1379 m1\.multa_reg\[2\]
*1380 m1\.multa_reg\[3\]
*1381 m1\.multa_reg\[4\]
*1382 m1\.multa_reg\[5\]
*1383 m1\.multa_reg\[6\]
*1384 m1\.multa_reg\[7\]
*1385 m1\.multa_reg\[8\]
*1386 m1\.multa_reg\[9\]
*1387 m1\.out\[0\]
*1388 m1\.out\[10\]
*1389 m1\.out\[11\]
*1390 m1\.out\[12\]
*1391 m1\.out\[13\]
*1392 m1\.out\[14\]
*1393 m1\.out\[15\]
*1394 m1\.out\[16\]
*1395 m1\.out\[1\]
*1396 m1\.out\[2\]
*1397 m1\.out\[3\]
*1398 m1\.out\[4\]
*1399 m1\.out\[5\]
*1400 m1\.out\[6\]
*1401 m1\.out\[7\]
*1402 m1\.out\[8\]
*1403 m1\.out\[9\]
*1404 m2\.a\[0\]
*1405 m2\.a\[1\]
*1406 m2\.a\[2\]
*1407 m2\.a\[3\]
*1408 m2\.a\[4\]
*1409 m2\.a\[5\]
*1410 m2\.a\[6\]
*1411 m2\.a\[7\]
*1412 m2\.b\[0\]
*1413 m2\.b\[1\]
*1414 m2\.b\[2\]
*1415 m2\.b\[3\]
*1416 m2\.b\[4\]
*1417 m2\.b\[5\]
*1418 m2\.b\[6\]
*1419 m2\.b\[7\]
*1420 m2\.multa_reg\[0\]
*1421 m2\.multa_reg\[10\]
*1422 m2\.multa_reg\[11\]
*1423 m2\.multa_reg\[12\]
*1424 m2\.multa_reg\[13\]
*1425 m2\.multa_reg\[14\]
*1426 m2\.multa_reg\[15\]
*1427 m2\.multa_reg\[1\]
*1428 m2\.multa_reg\[2\]
*1429 m2\.multa_reg\[3\]
*1430 m2\.multa_reg\[4\]
*1431 m2\.multa_reg\[5\]
*1432 m2\.multa_reg\[6\]
*1433 m2\.multa_reg\[7\]
*1434 m2\.multa_reg\[8\]
*1435 m2\.multa_reg\[9\]
*1436 m2\.out\[0\]
*1437 m2\.out\[10\]
*1438 m2\.out\[11\]
*1439 m2\.out\[12\]
*1440 m2\.out\[13\]
*1441 m2\.out\[14\]
*1442 m2\.out\[15\]
*1443 m2\.out\[16\]
*1444 m2\.out\[1\]
*1445 m2\.out\[2\]
*1446 m2\.out\[3\]
*1447 m2\.out\[4\]
*1448 m2\.out\[5\]
*1449 m2\.out\[6\]
*1450 m2\.out\[7\]
*1451 m2\.out\[8\]
*1452 m2\.out\[9\]
*1453 net1
*1454 net10
*1455 net11
*1456 net12
*1457 net13
*1458 net14
*1459 net15
*1460 net16
*1461 net17
*1462 net18
*1463 net19
*1464 net2
*1465 net20
*1466 net21
*1467 net22
*1468 net23
*1469 net24
*1470 net3
*1471 net32
*1472 net33
*1473 net4
*1474 net5
*1475 net6
*1476 net7
*1477 net8
*1478 net9
*1479 ANTENNA__1243__A
*1480 ANTENNA__1243__B
*1481 ANTENNA__1243__C
*1482 ANTENNA__1244__A1
*1483 ANTENNA__1244__A2
*1484 ANTENNA__1244__B2
*1485 ANTENNA__1247__A
*1486 ANTENNA__1247__B
*1487 ANTENNA__1248__A
*1488 ANTENNA__1250__A
*1489 ANTENNA__1250__B
*1490 ANTENNA__1251__A
*1491 ANTENNA__1251__B
*1492 ANTENNA__1254__A
*1493 ANTENNA__1254__B
*1494 ANTENNA__1260__A
*1495 ANTENNA__1260__B
*1496 ANTENNA__1262__A1
*1497 ANTENNA__1262__A2
*1498 ANTENNA__1264__A1
*1499 ANTENNA__1264__A2
*1500 ANTENNA__1264__B1
*1501 ANTENNA__1264__B2
*1502 ANTENNA__1267__A1
*1503 ANTENNA__1267__A2
*1504 ANTENNA__1268__B
*1505 ANTENNA__1269__A1
*1506 ANTENNA__1269__A2
*1507 ANTENNA__1270__A1
*1508 ANTENNA__1271__A
*1509 ANTENNA__1274__A
*1510 ANTENNA__1274__B
*1511 ANTENNA__1278__A1
*1512 ANTENNA__1278__A2
*1513 ANTENNA__1285__A
*1514 ANTENNA__1285__B
*1515 ANTENNA__1286__A1
*1516 ANTENNA__1286__A2
*1517 ANTENNA__1286__B1
*1518 ANTENNA__1286__B2
*1519 ANTENNA__1287__A
*1520 ANTENNA__1287__B
*1521 ANTENNA__1289__A
*1522 ANTENNA__1291__A1
*1523 ANTENNA__1293__A
*1524 ANTENNA__1293__B
*1525 ANTENNA__1297__B
*1526 ANTENNA__1297__C
*1527 ANTENNA__1297__D
*1528 ANTENNA__1300__A
*1529 ANTENNA__1300__B
*1530 ANTENNA__1301__A
*1531 ANTENNA__1301__B
*1532 ANTENNA__1303__A
*1533 ANTENNA__1303__B
*1534 ANTENNA__1307__A1
*1535 ANTENNA__1307__A2
*1536 ANTENNA__1318__A
*1537 ANTENNA__1319__A1
*1538 ANTENNA__1319__A2
*1539 ANTENNA__1319__B1
*1540 ANTENNA__1319__B2
*1541 ANTENNA__1320__A
*1542 ANTENNA__1320__B
*1543 ANTENNA__1320__C
*1544 ANTENNA__1322__A
*1545 ANTENNA__1331__B
*1546 ANTENNA__1334__C
*1547 ANTENNA__1334__D
*1548 ANTENNA__1336__A1
*1549 ANTENNA__1336__A2
*1550 ANTENNA__1336__B1
*1551 ANTENNA__1357__A1
*1552 ANTENNA__1357__A2
*1553 ANTENNA__1357__B2
*1554 ANTENNA__1358__A
*1555 ANTENNA__1358__B
*1556 ANTENNA__1360__A2
*1557 ANTENNA__1364__A2
*1558 ANTENNA__1366__B
*1559 ANTENNA__1372__B
*1560 ANTENNA__1392__A2
*1561 ANTENNA__1392__B2
*1562 ANTENNA__1433__B
*1563 ANTENNA__1434__A1
*1564 ANTENNA__1434__B1
*1565 ANTENNA__1442__C
*1566 ANTENNA__1442__D
*1567 ANTENNA__1456__A2
*1568 ANTENNA__1456__B1
*1569 ANTENNA__1462__B
*1570 ANTENNA__1463__A2
*1571 ANTENNA__1463__B1
*1572 ANTENNA__1463__B2
*1573 ANTENNA__1464__D
*1574 ANTENNA__1481__C
*1575 ANTENNA__1481__D
*1576 ANTENNA__1482__A2
*1577 ANTENNA__1482__B1
*1578 ANTENNA__1483__D
*1579 ANTENNA__1489__B
*1580 ANTENNA__1496__C
*1581 ANTENNA__1496__D
*1582 ANTENNA__1497__A2_N
*1583 ANTENNA__1500__B
*1584 ANTENNA__1527__A
*1585 ANTENNA__1528__A
*1586 ANTENNA__1529__A
*1587 ANTENNA__1530__B1
*1588 ANTENNA__1531__A
*1589 ANTENNA__1532__A
*1590 ANTENNA__1534__A
*1591 ANTENNA__1535__A1
*1592 ANTENNA__1536__A
*1593 ANTENNA__1537__A
*1594 ANTENNA__1538__A
*1595 ANTENNA__1540__A
*1596 ANTENNA__1541__A1
*1597 ANTENNA__1544__S
*1598 ANTENNA__1547__A
*1599 ANTENNA__1548__A1
*1600 ANTENNA__1550__B
*1601 ANTENNA__1551__A1
*1602 ANTENNA__1553__B
*1603 ANTENNA__1554__A1
*1604 ANTENNA__1556__B
*1605 ANTENNA__1557__A1
*1606 ANTENNA__1559__A
*1607 ANTENNA__1560__A1
*1608 ANTENNA__1564__A
*1609 ANTENNA__1565__S
*1610 ANTENNA__1569__S
*1611 ANTENNA__1572__A
*1612 ANTENNA__1573__A1
*1613 ANTENNA__1576__S
*1614 ANTENNA__1579__A
*1615 ANTENNA__1580__A1
*1616 ANTENNA__1581__A2
*1617 ANTENNA__1581__B1
*1618 ANTENNA__1582__A
*1619 ANTENNA__1583__A1
*1620 ANTENNA__1584__A
*1621 ANTENNA__1584__C
*1622 ANTENNA__1585__A1
*1623 ANTENNA__1589__A
*1624 ANTENNA__1590__C
*1625 ANTENNA__1590__D
*1626 ANTENNA__1591__A2
*1627 ANTENNA__1591__B1
*1628 ANTENNA__1595__B
*1629 ANTENNA__1596__B
*1630 ANTENNA__1598__B
*1631 ANTENNA__1599__B
*1632 ANTENNA__1600__A
*1633 ANTENNA__1606__B
*1634 ANTENNA__1611__B
*1635 ANTENNA__1613__A2
*1636 ANTENNA__1615__A2
*1637 ANTENNA__1615__B1
*1638 ANTENNA__1618__A2
*1639 ANTENNA__1619__B
*1640 ANTENNA__1620__A2
*1641 ANTENNA__1621__A2
*1642 ANTENNA__1622__B
*1643 ANTENNA__1624__A2
*1644 ANTENNA__1625__B
*1645 ANTENNA__1637__C
*1646 ANTENNA__1637__D
*1647 ANTENNA__1638__B
*1648 ANTENNA__1639__A2
*1649 ANTENNA__1639__B1
*1650 ANTENNA__1640__B
*1651 ANTENNA__1643__B
*1652 ANTENNA__1644__B
*1653 ANTENNA__1646__B
*1654 ANTENNA__1652__A2
*1655 ANTENNA__1653__B
*1656 ANTENNA__1655__A2
*1657 ANTENNA__1656__B
*1658 ANTENNA__1671__A2
*1659 ANTENNA__1671__B1
*1660 ANTENNA__1674__A2
*1661 ANTENNA__1675__B
*1662 ANTENNA__1683__B
*1663 ANTENNA__1685__B1
*1664 ANTENNA__1686__C
*1665 ANTENNA__1686__D
*1666 ANTENNA__1688__A2
*1667 ANTENNA__1688__B1
*1668 ANTENNA__1704__B_N
*1669 ANTENNA__1713__A2
*1670 ANTENNA__1722__A2
*1671 ANTENNA__1723__A2
*1672 ANTENNA__1724__B
*1673 ANTENNA__1727__A
*1674 ANTENNA__1734__A1
*1675 ANTENNA__1734__A2
*1676 ANTENNA__1741__A
*1677 ANTENNA__1742__A2
*1678 ANTENNA__1749__B
*1679 ANTENNA__1758__A
*1680 ANTENNA__1758__B
*1681 ANTENNA__1763__A
*1682 ANTENNA__1776__C
*1683 ANTENNA__1783__B
*1684 ANTENNA__1784__A2
*1685 ANTENNA__1784__B1
*1686 ANTENNA__1792__B
*1687 ANTENNA__1792__C
*1688 ANTENNA__1792__D
*1689 ANTENNA__1793__B1
*1690 ANTENNA__1793__C1
*1691 ANTENNA__1794__A1
*1692 ANTENNA__1794__A2
*1693 ANTENNA__1806__A2
*1694 ANTENNA__1806__B1
*1695 ANTENNA__1806__B2
*1696 ANTENNA__1812__A
*1697 ANTENNA__1812__B
*1698 ANTENNA__1813__A2
*1699 ANTENNA__1813__B1
*1700 ANTENNA__1831__D
*1701 ANTENNA__1832__A2
*1702 ANTENNA__1832__B1
*1703 ANTENNA__1833__D
*1704 ANTENNA__1839__A
*1705 ANTENNA__1839__B
*1706 ANTENNA__1846__A
*1707 ANTENNA__1846__B
*1708 ANTENNA__1846__C
*1709 ANTENNA__1846__D
*1710 ANTENNA__1847__A1_N
*1711 ANTENNA__1847__A2_N
*1712 ANTENNA__1850__A
*1713 ANTENNA__1850__B
*1714 ANTENNA__1864__A
*1715 ANTENNA__1866__A
*1716 ANTENNA__1867__A1
*1717 ANTENNA__1876__A
*1718 ANTENNA__1876__B
*1719 ANTENNA__1877__A1
*1720 ANTENNA__1879__A
*1721 ANTENNA__1879__B
*1722 ANTENNA__1880__A1
*1723 ANTENNA__1882__A
*1724 ANTENNA__1883__A1
*1725 ANTENNA__1885__A
*1726 ANTENNA__1886__A1
*1727 ANTENNA__1887__B
*1728 ANTENNA__1888__A
*1729 ANTENNA__1889__A1
*1730 ANTENNA__1891__A
*1731 ANTENNA__1892__A1
*1732 ANTENNA__1894__A
*1733 ANTENNA__1895__A1
*1734 ANTENNA__1897__A
*1735 ANTENNA__1898__A1
*1736 ANTENNA__1900__A
*1737 ANTENNA__1901__A1
*1738 ANTENNA__1904__S
*1739 ANTENNA__1908__S
*1740 ANTENNA__1911__A
*1741 ANTENNA__1912__A1
*1742 ANTENNA__1915__S
*1743 ANTENNA__1918__A
*1744 ANTENNA__1919__A1
*1745 ANTENNA__1920__A1
*1746 ANTENNA__1920__A2
*1747 ANTENNA__1920__B1
*1748 ANTENNA__1920__B2
*1749 ANTENNA__1921__C
*1750 ANTENNA__1922__A1
*1751 ANTENNA__1923__A
*1752 ANTENNA__1923__B
*1753 ANTENNA__1923__C
*1754 ANTENNA__1924__A1
*1755 ANTENNA__1970__C1
*1756 ANTENNA__1973__S
*1757 ANTENNA__1977__S
*1758 ANTENNA__1981__S
*1759 ANTENNA__1985__S
*1760 ANTENNA__1989__S
*1761 ANTENNA__1993__A
*1762 ANTENNA__1994__S
*1763 ANTENNA__1998__S
*1764 ANTENNA__2002__S
*1765 ANTENNA__2006__S
*1766 ANTENNA__2010__S
*1767 ANTENNA__2014__S
*1768 ANTENNA__2018__S
*1769 ANTENNA__2023__S
*1770 ANTENNA__2027__S
*1771 ANTENNA__2030__A
*1772 ANTENNA__2031__A1
*1773 ANTENNA__2032__A
*1774 ANTENNA__2034__A0
*1775 ANTENNA__2034__S
*1776 ANTENNA__2036__A
*1777 ANTENNA__2037__A0
*1778 ANTENNA__2039__A0
*1779 ANTENNA__2041__A0
*1780 ANTENNA__2043__A0
*1781 ANTENNA__2051__A0
*1782 ANTENNA__2051__A1
*1783 ANTENNA__2055__A0
*1784 ANTENNA__2057__A
*1785 ANTENNA__2058__A0
*1786 ANTENNA__2058__S
*1787 ANTENNA__2060__A0
*1788 ANTENNA__2060__S
*1789 ANTENNA__2062__A0
*1790 ANTENNA__2062__S
*1791 ANTENNA__2064__A0
*1792 ANTENNA__2064__S
*1793 ANTENNA__2066__A0
*1794 ANTENNA__2066__S
*1795 ANTENNA__2068__A
*1796 ANTENNA__2069__A
*1797 ANTENNA__2070__B
*1798 ANTENNA__2071__B
*1799 ANTENNA__2074__B
*1800 ANTENNA__2100__B
*1801 ANTENNA__2106__B
*1802 ANTENNA__2108__B
*1803 ANTENNA__2110__A
*1804 ANTENNA__2112__A
*1805 ANTENNA__2113__C1
*1806 ANTENNA__2117__S
*1807 ANTENNA__2121__S
*1808 ANTENNA__2125__A0
*1809 ANTENNA__2125__S
*1810 ANTENNA__2129__A0
*1811 ANTENNA__2129__S
*1812 ANTENNA__2133__S
*1813 ANTENNA__2137__A
*1814 ANTENNA__2138__S
*1815 ANTENNA__2142__A0
*1816 ANTENNA__2142__S
*1817 ANTENNA__2146__S
*1818 ANTENNA__2150__S
*1819 ANTENNA__2154__S
*1820 ANTENNA__2158__S
*1821 ANTENNA__2162__S
*1822 ANTENNA__2167__S
*1823 ANTENNA__2171__S
*1824 ANTENNA__2174__A
*1825 ANTENNA__2175__A1
*1826 ANTENNA__2176__A
*1827 ANTENNA__2178__S
*1828 ANTENNA__2180__A
*1829 ANTENNA__2191__A0
*1830 ANTENNA__2193__A0
*1831 ANTENNA__2195__A0
*1832 ANTENNA__2197__A0
*1833 ANTENNA__2199__A0
*1834 ANTENNA__2201__A0
*1835 ANTENNA__2201__S
*1836 ANTENNA__2203__A0
*1837 ANTENNA__2203__S
*1838 ANTENNA__2205__A0
*1839 ANTENNA__2205__S
*1840 ANTENNA__2207__A0
*1841 ANTENNA__2207__S
*1842 ANTENNA__2209__A0
*1843 ANTENNA__2209__S
*1844 ANTENNA__2211__A
*1845 ANTENNA__2216__S
*1846 ANTENNA__2218__S
*1847 ANTENNA__2220__S
*1848 ANTENNA__2222__S
*1849 ANTENNA__2224__S
*1850 ANTENNA__2228__B
*1851 ANTENNA__2230__B
*1852 ANTENNA__2243__A
*1853 ANTENNA__2244__B
*1854 ANTENNA__2267__A
*1855 ANTENNA__2270__B
*1856 ANTENNA__2282__B
*1857 ANTENNA__2299__B2
*1858 ANTENNA__2321__B
*1859 ANTENNA__2322__A
*1860 ANTENNA__2325__S
*1861 ANTENNA__2327__A
*1862 ANTENNA__2328__A
*1863 ANTENNA__2339__A
*1864 ANTENNA__2350__A
*1865 ANTENNA__2361__A
*1866 ANTENNA__2372__A
*1867 ANTENNA__2373__A
*1868 ANTENNA__2374__A
*1869 ANTENNA__2375__A
*1870 ANTENNA__2376__A
*1871 ANTENNA__2377__A
*1872 ANTENNA__2378__A
*1873 ANTENNA__2379__A
*1874 ANTENNA__2380__A
*1875 ANTENNA__2381__A
*1876 ANTENNA__2382__A
*1877 ANTENNA__2383__A
*1878 ANTENNA__2394__A
*1879 ANTENNA__2395__A
*1880 ANTENNA__2396__A
*1881 ANTENNA__2397__A
*1882 ANTENNA__2398__A
*1883 ANTENNA__2399__A
*1884 ANTENNA__2400__A
*1885 ANTENNA__2401__A
*1886 ANTENNA__2402__A
*1887 ANTENNA__2403__A
*1888 ANTENNA__2404__A
*1889 ANTENNA__2405__A
*1890 ANTENNA__2416__A
*1891 ANTENNA__2417__A
*1892 ANTENNA__2418__A
*1893 ANTENNA__2419__A
*1894 ANTENNA__2420__A
*1895 ANTENNA__2421__A
*1896 ANTENNA__2422__A
*1897 ANTENNA__2423__A
*1898 ANTENNA__2424__A
*1899 ANTENNA__2425__A
*1900 ANTENNA__2426__A
*1901 ANTENNA__2427__A
*1902 ANTENNA__2428__A
*1903 ANTENNA__2429__A
*1904 ANTENNA__2430__A
*1905 ANTENNA__2431__A
*1906 ANTENNA__2432__A
*1907 ANTENNA__2433__A
*1908 ANTENNA__2434__A
*1909 ANTENNA__2435__A
*1910 ANTENNA__2436__A
*1911 ANTENNA__2437__A
*1912 ANTENNA__2438__A
*1913 ANTENNA__2439__A
*1914 ANTENNA__2440__A
*1915 ANTENNA__2441__A
*1916 ANTENNA__2442__A
*1917 ANTENNA__2443__A
*1918 ANTENNA__2444__A
*1919 ANTENNA__2445__A
*1920 ANTENNA__2446__A
*1921 ANTENNA__2447__A
*1922 ANTENNA__2448__A
*1923 ANTENNA__2449__A
*1924 ANTENNA__2450__A